Metadata-Version: 1.1
Name: pypsse
Version: 0.1.9
Summary: PSSE API wrapper for Python
Home-page: https://github.com/jessemarkboyd/pypsse
Author: Jesse Boyd
Author-email: jessemarkboyd@gmail.com
License: Creative Commons Attribution-Noncommercial-Share Alike license
Download-URL: https://github.com/jessemarkboyd/pypsse/tarball/0.1.9
Description: # pypsse
        Wrapper for the PSS/E python APIs
        
Keywords: testing,logging,psse,powerflow,loadflow
Platform: UNKNOWN
