# pypsse
Wrapper for the PSS/E python APIs
